
.subckt JNWGREX_TI VDD_1V8 IPTN VSS PWRUP_N_1V8

x7<1> VBN1 VBN1 VBN2 VBN2 JNWATR_NCH_2C5F0
x7<0> VBN1 VBN1 VBN2 VBN2 JNWATR_NCH_2C5F0
*x3 VBN1 net1 VSS JNWTR_RPPO16
*x1 IPTN VBN1 net2 VSS JNWATR_NCH_2C5F0

R1 VBN1 VDD_1V8 116k

x6<1> VBN2 VBN2 VSS VSS JNWATR_NCH_2C5F0
x6<0> VBN2 VBN2 VSS VSS JNWATR_NCH_2C5F0
x2 IPTN VBN2 VSS VSS JNWATR_NCH_2C5F0

*x4 net1 PWRUP_N_1V8 VDD_1V8 VDD_1V8 JNWATR_PCH_2C1F2
*x5 VBN2 PWRUP_N_1V8 VSS VSS JNWATR_NCH_2C5F0



.ends


.end
